/*--------------------------------*- C++ -*----------------------------------*\
| =========                 |                                                 |
| \\      /  F ield         | OpenFOAM: The Open Source CFD Toolbox           |
|  \\    /   O peration     | Version:  3.0.x                                 |
|   \\  /    A nd           | Web:      www.OpenFOAM.org                      |
|    \\/     M anipulation  |                                                 |
\*---------------------------------------------------------------------------*/
FoamFile
{
    version     2.0;
    format      ascii;
    class       dictionary;
    object      controlDict;
}
// * * * * * * * * * * * * * * * * * * * * * * * * * * * * * * * * * * * * * //

application     nonNewtonianIcoFoamTest;

startFrom       latestTime;
//startFrom       startTime;

startTime       0.0;

stopAt          endTime;

endTime         200;

deltaT          0.001;	

//writeControl    adjustableRunTime;
writeControl    timeStep;

writeInterval   100;

purgeWrite      0;

writeFormat     ascii;

writePrecision  8;

writeCompression off;

timeFormat      general;

timePrecision   6;

runTimeModifiable no;

// ************************************************************************* //
functions
{


inlet_areaAveragedVelocity
    {
        type            surfaceRegion;
        libs ("libfieldFunctionObjects.so");
        //writeControl outputTime;
        writeControl    timeStep;
        writeInterval   100;
        log             true;
        // Output field values as well
        writeFields     false;
        regionType      patch;
        name            cyclic_in;
        operation       areaAverage;

        fields
        (
            U
        );
    }


forces_object
{
    type forces;
    functionObjectLibs ("libforces.so");

    //writeControl outputTime;
    writeControl   timeStep;
    writeInterval  100;

    //// Patches to sample
    patches ("wall");

    //// Name of fields
    p p;
    U U;

    //// Density
    rho rhoInf;	//for incompressible uncomment and define rhoInf
    rhoInf 1000;		//dummy value for compressible flows

    //// Centre of rotation
    CofR (0 0 0);
}
    
field_averages
{
    type            fieldAverage;
    functionObjectLibs ("libfieldFunctionObjects.so");
    enabled         true;

    //writeControl   outputTime;
    writeControl   timeStep;
    writeInterval  100;

    //cleanRestart true;

    timeStart       0.00;
    timeEnd         100.00;

    fields
    (
        U
        {
            mean        on;
            prime2Mean  on;
            base        time;            
        }

        p
        {
            mean        on;
            prime2Mean  on;
            base        time;
        }
    );
}

///////////////////////////////////////////////////////////////////////////

}
